# generated using pymatgen
data_Li7La3Zr2O12
_symmetry_space_group_name_H-M   'P 1'
_cell_length_a   11.22836875
_cell_length_b   11.22836875
_cell_length_c   11.22836869
_cell_angle_alpha   108.36102133
_cell_angle_beta   108.36102150
_cell_angle_gamma   111.71519139
_symmetry_Int_Tables_number   1
_chemical_formula_structural   Li7La3Zr2O12
_chemical_formula_sum   'Li28 La12 Zr8 O48'
_cell_volume   1088.49400630
_cell_formula_units_Z   4
loop_
 _symmetry_equiv_pos_site_id
 _symmetry_equiv_pos_as_xyz
  1  'x, y, z'
loop_
 _atom_site_type_symbol
 _atom_site_label
 _atom_site_symmetry_multiplicity
 _atom_site_fract_x
 _atom_site_fract_y
 _atom_site_fract_z
 _atom_site_occupancy
  Li  Li0  1  0.50000000  0.50000001  -0.00000009  1
  Li  Li1  1  -0.00000002  -0.00000001  0.00000007  1
  Li  Li2  1  0.25000002  0.75000001  0.49999993  1
  Li  Li3  1  0.75000000  0.24999999  0.50000009  1
  Li  Li4  1  0.92901451  0.92901445  0.35802928  1
  Li  Li5  1  0.07098538  0.42901460  0.00000000  1
  Li  Li6  1  0.67901446  0.17901451  0.85802928  1
  Li  Li7  1  0.82098537  0.67901462  0.50000001  1
  Li  Li8  1  0.32098549  0.82098555  0.14197072  1
  Li  Li9  1  0.17901462  0.32098540  0.50000000  1
  Li  Li10  1  0.57098554  0.57098549  0.64197072  1
  Li  Li11  1  0.42901463  0.07098538  -0.00000001  1
  Li  Li12  1  0.90517596  0.15048391  0.91762251  1
  Li  Li13  1  0.73286160  0.65048401  0.24530804  1
  Li  Li14  1  0.90048392  0.15517597  0.41762252  1
  Li  Li15  1  0.23755364  0.65517591  0.25469169  1
  Li  Li16  1  0.34482404  0.59951609  0.58237749  1
  Li  Li17  1  0.51713840  0.09951599  0.25469196  1
  Li  Li18  1  0.34951608  0.59482403  0.08237748  1
  Li  Li19  1  0.01244636  0.09482409  0.24530831  1
  Li  Li20  1  0.40517591  0.48755365  0.75469169  1
  Li  Li21  1  0.23286154  0.98755349  0.08237754  1
  Li  Li22  1  0.40048402  0.98286160  0.74530804  1
  Li  Li23  1  0.73755349  0.48286155  0.58237755  1
  Li  Li24  1  0.84482409  0.26244635  0.74530831  1
  Li  Li25  1  0.01713846  0.76244651  0.41762246  1
  Li  Li26  1  0.84951598  0.76713840  0.75469196  1
  Li  Li27  1  0.51244651  0.26713845  0.91762245  1
  La  La28  1  0.75000002  0.74999996  -0.00000000  1
  La  La29  1  0.25000001  0.24999999  -0.00000000  1
  La  La30  1  0.49999998  0.00000004  0.50000000  1
  La  La31  1  -0.00000001  0.50000001  0.50000000  1
  La  La32  1  0.37500001  0.75293178  0.87793178  1
  La  La33  1  0.37499997  0.25293177  0.37793175  1
  La  La34  1  0.50293178  0.62500001  0.37793177  1
  La  La35  1  0.74706822  0.12499999  0.12206823  1
  La  La36  1  0.87499999  0.99706822  0.62206822  1
  La  La37  1  0.87500003  0.49706823  0.12206825  1
  La  La38  1  0.00293177  0.62499997  0.87793175  1
  La  La39  1  0.24706823  0.12500003  0.62206825  1
  Zr  Zr40  1  0.62500000  0.87500000  0.75000000  1
  Zr  Zr41  1  0.62500000  0.37500000  0.25000000  1
  Zr  Zr42  1  0.62500000  0.87500000  0.25000000  1
  Zr  Zr43  1  0.12500000  0.37500000  0.25000000  1
  Zr  Zr44  1  0.12500000  0.37500000  0.75000000  1
  Zr  Zr45  1  0.12500000  0.87500000  0.25000000  1
  Zr  Zr46  1  0.12500000  0.87500000  0.75000000  1
  Zr  Zr47  1  0.62500000  0.37500000  0.75000000  1
  O  O48  1  0.52654252  0.68619949  0.76995384  1
  O  O49  1  0.41624561  0.18619952  0.15965696  1
  O  O50  1  0.43619949  0.77654252  0.26995383  1
  O  O51  1  0.00658861  0.27654252  0.34034301  1
  O  O52  1  0.72345748  0.06380052  0.73004616  1
  O  O53  1  0.83375439  0.56380048  0.34034304  1
  O  O54  1  0.81380051  0.97345748  0.23004617  1
  O  O55  1  0.24341139  0.47345748  0.15965699  1
  O  O56  1  0.02654252  0.25658860  0.84034301  1
  O  O57  1  0.91624560  0.75658858  0.23004611  1
  O  O58  1  0.93619952  0.66624560  0.65965696  1
  O  O59  1  0.50658859  0.16624561  0.73004612  1
  O  O60  1  0.22345748  0.49341140  0.65965699  1
  O  O61  1  0.33375440  0.99341142  0.26995389  1
  O  O62  1  0.31380048  0.08375440  0.84034304  1
  O  O63  1  0.74341141  0.58375439  0.76995388  1
  O  O64  1  0.94330475  0.39494564  0.65748681  1
  O  O65  1  0.23745882  0.89494562  0.45164087  1
  O  O66  1  0.14494564  0.19330475  0.15748681  1
  O  O67  1  0.53581790  0.69330474  0.04835910  1
  O  O68  1  0.30669525  0.35505436  0.84251319  1
  O  O69  1  0.01254118  0.85505438  0.04835913  1
  O  O70  1  0.10505436  0.55669525  0.34251319  1
  O  O71  1  0.71418210  0.05669526  0.45164090  1
  O  O72  1  0.44330475  0.78581791  0.54835910  1
  O  O73  1  0.73745871  0.28581783  0.34251316  1
  O  O74  1  0.64494562  0.48745882  0.95164087  1
  O  O75  1  0.03581783  0.98745871  0.84251315  1
  O  O76  1  0.80669525  0.96418209  0.95164090  1
  O  O77  1  0.51254129  0.46418217  0.15748684  1
  O  O78  1  0.60505438  0.26254118  0.54835913  1
  O  O79  1  0.21418217  0.76254129  0.65748685  1
  O  O80  1  0.20601457  0.57873850  0.92775486  1
  O  O81  1  0.15098367  0.07873851  0.37272398  1
  O  O82  1  0.32873850  0.45601457  0.42775486  1
  O  O83  1  0.52825970  0.95601457  0.12727605  1
  O  O84  1  0.04398543  0.17126150  0.57224514  1
  O  O85  1  0.09901633  0.67126149  0.12727602  1
  O  O86  1  0.92126150  0.29398543  0.07224514  1
  O  O87  1  0.72174030  0.79398543  0.37272395  1
  O  O88  1  0.70601456  0.77825969  0.62727604  1
  O  O89  1  0.65098366  0.27825970  0.07224512  1
  O  O90  1  0.82873851  0.40098366  0.87272397  1
  O  O91  1  0.02825970  0.90098366  0.57224512  1
  O  O92  1  0.54398544  0.97174031  0.87272396  1
  O  O93  1  0.59901634  0.47174030  0.42775488  1
  O  O94  1  0.42126149  0.34901634  0.62727603  1
  O  O95  1  0.22174030  0.84901634  0.92775488  1
